data_image0
_chemical_formula_structural       C10O20N20H14
_chemical_formula_sum              "C10 O20 N20 H14"
_cell_length_a       8.20531
_cell_length_b       8.6657
_cell_length_c       9.0555
_cell_angle_alpha    98.095
_cell_angle_beta     90.5104
_cell_angle_gamma    83.4013

_space_group_name_H-M_alt    "P 1"
_space_group_IT_number       1

loop_
  _space_group_symop_operation_xyz
  'x, y, z'

loop_
  _atom_site_type_symbol
  _atom_site_label
  _atom_site_symmetry_multiplicity
  _atom_site_fract_x
  _atom_site_fract_y
  _atom_site_fract_z
  _atom_site_occupancy
  C   C1        1.0  0.24885  0.89909  0.27338  1.0000
  C   C2        1.0  0.47803  0.88739  0.08087  1.0000
  C   C3        1.0  0.69344  0.76375  0.25575  1.0000
  C   C4        1.0  0.46546  0.78091  0.44840  1.0000
  C   C5        1.0  0.82628  0.22828  0.74415  1.0000
  C   C6        1.0  0.96760  0.18987  0.85909  1.0000
  C   C7        1.0  0.02975  0.31834  0.58172  1.0000
  C   C8        1.0  0.17068  0.28027  0.69670  1.0000
  C   C9        1.0  0.01226  0.53024  0.79200  1.0000
  C   C10       1.0  0.87956  0.47028  0.89826  1.0000
  O   O1        1.0  0.39826  0.50471  0.31264  1.0000
  O   O2        1.0  0.60643  0.48430  0.14497  1.0000
  O   O3        1.0  0.91992  0.84220  0.08586  1.0000
  O   O4        1.0  0.74052  0.95537  0.93109  1.0000
  O   O5        1.0  0.53724  0.16689  0.21931  1.0000
  O   O6        1.0  0.34184  0.17190  0.39618  1.0000
  O   O7        1.0  0.02971  0.79300  0.42090  1.0000
  O   O8        1.0  0.20225  0.71692  0.60067  1.0000
  O   O9        1.0  0.10727  0.21586  0.13277  1.0000
  O   O10       1.0  0.00795  0.47236  0.19082  1.0000
  O   O11       1.0  0.56048  0.59576  0.82584  1.0000
  O   O12       1.0  0.53780  0.37969  0.65690  1.0000
  O   O13       1.0  0.79786  0.49101  0.44411  1.0000
  O   O14       1.0  0.78411  0.69525  0.63258  1.0000
  O   O15       1.0  0.24268  0.57330  0.00812  1.0000
  O   O16       1.0  0.37543  0.33078  0.93124  1.0000
  O   O17       1.0  0.18783  0.93468  0.88162  1.0000
  O   O18       1.0  0.37721  0.01852  0.74175  1.0000
  O   O19       1.0  0.70752  0.06747  0.49610  1.0000
  O   O20       1.0  0.88987  0.14425  0.34480  1.0000
  N   N1        1.0  0.29519  0.84288  0.41807  1.0000
  N   N2        1.0  0.38377  0.96333  0.21197  1.0000
  N   N3        1.0  0.64847  0.83159  0.11609  1.0000
  N   N4        1.0  0.55198  0.70708  0.31292  1.0000
  N   N5        1.0  0.51754  0.55216  0.25302  1.0000
  N   N6        1.0  0.77578  0.88172  0.04154  1.0000
  N   N7        1.0  0.42313  0.11299  0.27991  1.0000
  N   N8        1.0  0.16902  0.77776  0.48322  1.0000
  N   N9        1.0  0.90036  0.21996  0.59755  1.0000
  N   N10       1.0  0.17191  0.43466  0.79124  1.0000
  N   N11       1.0  0.95423  0.33575  0.96521  1.0000
  N   N12       1.0  0.02853  0.34288  0.10737  1.0000
  N   N13       1.0  0.75980  0.38900  0.80597  1.0000
  N   N14       1.0  0.60819  0.46062  0.75999  1.0000
  N   N15       1.0  0.97706  0.48588  0.63405  1.0000
  N   N16       1.0  0.84282  0.56303  0.56574  1.0000
  N   N17       1.0  0.27059  0.44647  0.92024  1.0000
  N   N18       1.0  0.12361  0.16075  0.77971  1.0000
  N   N19       1.0  0.23933  0.02792  0.80342  1.0000
  N   N20       1.0  0.82591  0.13965  0.46877  1.0000
  H   H1        1.0  0.21567  0.80169  0.19271  1.0000
  H   H2        1.0  0.14262  0.98748  0.29387  1.0000
  H   H3        1.0  0.48475  0.96753  0.99899  1.0000
  H   H4        1.0  0.41558  0.78761  0.03242  1.0000
  H   H5        1.0  0.73343  0.85565  0.33866  1.0000
  H   H6        1.0  0.79339  0.66916  0.23257  1.0000
  H   H7        1.0  0.46003  0.69820  0.52849  1.0000
  H   H8        1.0  0.53246  0.87695  0.49697  1.0000
  H   H9        1.0  0.73240  0.14813  0.73874  1.0000
  H   H10       1.0  0.07284  0.30056  0.46621  1.0000
  H   H11       1.0  0.28920  0.24133  0.64244  1.0000
  H   H12       1.0  0.02225  0.65526  0.82079  1.0000
  H   H13       1.0  0.82141  0.56416  0.97991  1.0000
  H   H14       1.0  0.94748  0.08819  0.91281  1.0000
