data_image0
_chemical_formula_structural       C10O20N20H14
_chemical_formula_sum              "C10 O20 N20 H14"
_cell_length_a       8.11888
_cell_length_b       8.42042
_cell_length_c       9.44322
_cell_angle_alpha    98.2976
_cell_angle_beta     90.6926
_cell_angle_gamma    82.5604

_space_group_name_H-M_alt    "P 1"
_space_group_IT_number       1

loop_
  _space_group_symop_operation_xyz
  'x, y, z'

loop_
  _atom_site_type_symbol
  _atom_site_label
  _atom_site_symmetry_multiplicity
  _atom_site_fract_x
  _atom_site_fract_y
  _atom_site_fract_z
  _atom_site_occupancy
  C   C1        1.0  0.11753  0.98263  0.72174  1.0000
  C   C2        1.0  0.34284  0.97591  0.53315  1.0000
  C   C3        1.0  0.56473  0.84168  0.69444  1.0000
  C   C4        1.0  0.33952  0.84668  0.88107  1.0000
  C   C5        1.0  0.70053  0.30346  0.19808  1.0000
  C   C6        1.0  0.84954  0.26168  0.30226  1.0000
  C   C7        1.0  0.89612  0.40256  0.03925  1.0000
  C   C8        1.0  0.04539  0.35884  0.14350  1.0000
  C   C9        1.0  0.88346  0.61551  0.24403  1.0000
  C   C10       1.0  0.75830  0.54998  0.34961  1.0000
  O   O1        1.0  0.26456  0.57488  0.73260  1.0000
  O   O2        1.0  0.47999  0.55723  0.57754  1.0000
  O   O3        1.0  0.78981  0.92466  0.53100  1.0000
  O   O4        1.0  0.60307  0.04813  0.38948  1.0000
  O   O5        1.0  0.42124  0.24535  0.68105  1.0000
  O   O6        1.0  0.21689  0.25905  0.84609  1.0000
  O   O7        1.0  0.89898  0.86909  0.85808  1.0000
  O   O8        1.0  0.07620  0.77836  0.02465  1.0000
  O   O9        1.0  0.97228  0.27212  0.57114  1.0000
  O   O10       1.0  0.87935  0.53901  0.63142  1.0000
  O   O11       1.0  0.45107  0.69741  0.26779  1.0000
  O   O12       1.0  0.42297  0.47671  0.10460  1.0000
  O   O13       1.0  0.68435  0.60366  0.90066  1.0000
  O   O14       1.0  0.67747  0.81092  0.08443  1.0000
  O   O15       1.0  0.11506  0.64975  0.45197  1.0000
  O   O16       1.0  0.25728  0.40469  0.36749  1.0000
  O   O17       1.0  0.06762  0.99130  0.30595  1.0000
  O   O18       1.0  0.25792  0.07917  0.17407  1.0000
  O   O19       1.0  0.57383  0.14501  0.95718  1.0000
  O   O20       1.0  0.75514  0.22756  0.81288  1.0000
  N   N1        1.0  0.16717  0.91892  0.85764  1.0000
  N   N2        1.0  0.25317  0.04836  0.66358  1.0000
  N   N3        1.0  0.51618  0.91107  0.56078  1.0000
  N   N4        1.0  0.42391  0.77955  0.74727  1.0000
  N   N5        1.0  0.38802  0.62390  0.68161  1.0000
  N   N6        1.0  0.64240  0.96709  0.49133  1.0000
  N   N7        1.0  0.29944  0.19652  0.73465  1.0000
  N   N8        1.0  0.04045  0.84893  0.91646  1.0000
  N   N9        1.0  0.76843  0.30020  0.05578  1.0000
  N   N10       1.0  0.04804  0.51713  0.23719  1.0000
  N   N11       1.0  0.84397  0.41035  0.40548  1.0000
  N   N12       1.0  0.90103  0.40797  0.54777  1.0000
  N   N13       1.0  0.63142  0.46728  0.26651  1.0000
  N   N14       1.0  0.49240  0.55396  0.20827  1.0000
  N   N15       1.0  0.83949  0.57231  0.09568  1.0000
  N   N16       1.0  0.72552  0.67023  0.02195  1.0000
  N   N17       1.0  0.14730  0.52348  0.36186  1.0000
  N   N18       1.0  0.00331  0.23188  0.22028  1.0000
  N   N19       1.0  0.11974  0.08985  0.23471  1.0000
  N   N20       1.0  0.69202  0.21963  0.93166  1.0000
  H   H1        1.0  0.08244  0.88497  0.64222  1.0000
  H   H2        1.0  0.01069  0.07516  0.74513  1.0000
  H   H3        1.0  0.34874  0.06485  0.46049  1.0000
  H   H4        1.0  0.27696  0.87776  0.48204  1.0000
  H   H5        1.0  0.60068  0.93702  0.77587  1.0000
  H   H6        1.0  0.66957  0.74662  0.67199  1.0000
  H   H7        1.0  0.33283  0.75348  0.94967  1.0000
  H   H8        1.0  0.41005  0.93880  0.93519  1.0000
  H   H9        1.0  0.60918  0.21862  0.19378  1.0000
  H   H10       1.0  0.93432  0.38854  0.92716  1.0000
  H   H11       1.0  0.16359  0.32001  0.08726  1.0000
  H   H12       1.0  0.89123  0.74445  0.27208  1.0000
  H   H13       1.0  0.70341  0.64401  0.43298  1.0000
  H   H14       1.0  0.83283  0.15745  0.35487  1.0000
